Info: SIMULATION PARAMETERS:
Info: TIMESTEP               2
Info: NUMBER OF STEPS        0
Info: STEPS PER CYCLE        12
Info: PERIODIC CELL BASIS 1  1000 0 0
Info: PERIODIC CELL BASIS 2  0 1000 0
Info: PERIODIC CELL BASIS 3  0 0 1000
Info: PERIODIC CELL CENTER   0 0 0
Info: FIRST LDB TIMESTEP     60
Info: LAST LDB TIMESTEP     -1
Info: HOM BACKGROUND SCALING 1
Info: MIN ATOMS PER PATCH    40
Info: INITIAL TEMPERATURE    300
Info: CENTER OF MASS MOVING INITIALLY? NO
Info: DIELECTRIC             1
Info: EXCLUDE                SCALED ONE-FOUR
Info: 1-4 ELECTROSTATICS SCALED BY 1
Info: MODIFIED 1-4 VDW PARAMETERS WILL BE USED
Info: DCD FILENAME           output/small_test-1.dcd
Info: DCD FREQUENCY          4800
Info: DCD FIRST STEP         4800
Info: DCD FILE WILL CONTAIN UNIT CELL DATA
Info: XST FILENAME           output/small_test-1.xst
Info: XST FREQUENCY          4800
Info: NO VELOCITY DCD OUTPUT
Info: NO FORCE DCD OUTPUT
Info: OUTPUT FILENAME        output/small_test-1
Info: BINARY OUTPUT FILES WILL BE USED
Info: RESTART FILENAME       output/small_test-1.restart
Info: RESTART FREQUENCY      48000
Info: BINARY RESTART FILES WILL BE USED
Info: SWITCHING ACTIVE
Info: SWITCHING ON           8
Info: SWITCHING OFF          10
Info: PAIRLIST DISTANCE      12
Info: PAIRLIST SHRINK RATE   0.01
Info: PAIRLIST GROW RATE     0.01
Info: PAIRLIST TRIGGER       0.3
Info: PAIRLISTS PER CYCLE    2
Info: PAIRLISTS ENABLED
Info: MARGIN                 30
Info: HYDROGEN GROUP CUTOFF  2.5
Info: PATCH DIMENSION        44.5
Info: ENERGY OUTPUT STEPS    4800
Info: CROSSTERM ENERGY INCLUDED IN DIHEDRAL
Info: TIMING OUTPUT STEPS    48000
Info: LANGEVIN DYNAMICS ACTIVE
Info: LANGEVIN TEMPERATURE   300
Info: LANGEVIN USING BBK INTEGRATOR
Info: LANGEVIN DAMPING COEFFICIENT IS 0.1 INVERSE PS
Info: LANGEVIN DYNAMICS NOT APPLIED TO HYDROGENS
Info: USING VERLET I (r-RESPA) MTS SCHEME.
Info: C1 SPLITTING OF LONG RANGE ELECTROSTATICS
Info: PLACING ATOMS IN PATCHES BY HYDROGEN GROUPS
Info: RIGID BONDS TO HYDROGEN : ALL
Info:         ERROR TOLERANCE : 1e-08
Info:          MAX ITERATIONS : 100
Info: RIGID WATER USING SETTLE ALGORITHM
Info: RANDOM NUMBER SEED     1490285237
Info: USE HYDROGEN BONDS?    NO
Info: COORDINATE PDB         small_test.pdb
Info: STRUCTURE FILE         small_test.psf
Info: PARAMETER file: CHARMM format!
Info: PARAMETERS             charmm36.nbfix/par_all36_na.prm
Info: PARAMETERS             charmm36.nbfix/par_water_ions_na.prm
Info: USING ARITHMETIC MEAN TO COMBINE L-J SIGMA PARAMETERS
Info: SUMMARY OF PARAMETERS:
Info: 94 BONDS
Info: 230 ANGLES
Info: 503 DIHEDRAL
Info: 15 IMPROPER
Info: 0 CROSSTERM
Info: 58 VDW
Info: 8 VDW_PAIRS
Info: 0 NBTHOLE_PAIRS
Info: READING EXTRA BONDS FILE small_test.exb
Info: READ 1710 EXTRA BONDS
Info: STRUCTURE SUMMARY:
Info: 1982 ATOMS
Info: 3814 BONDS
Info: 3894 ANGLES
Info: 5568 DIHEDRALS
Info: 186 IMPROPERS
Info: 0 CROSSTERMS
Info: 0 EXCLUSIONS
Info: 748 RIGID BONDS
Info: 5198 DEGREES OF FREEDOM
Info: 1234 HYDROGEN GROUPS
Info: 4 ATOMS IN LARGEST HYDROGEN GROUP
Info: 1234 MIGRATION GROUPS
Info: 4 ATOMS IN LARGEST MIGRATION GROUP
Info: TOTAL MASS = 18675.9 amu
Info: TOTAL CHARGE = -60 e
Info: MASS DENSITY = 3.10127e-05 g/cm^3
Info: ATOM DENSITY = 1.982e-06 atoms/A^3
Info: ADDED 11070 IMPLICIT EXCLUSIONS
Info: NONBONDED TABLE R-SQUARED SPACING: 0.0625
Info: NONBONDED TABLE SIZE: 705 POINTS
Info: REMOVING COM VELOCITY 0.0790175 -0.0202878 -0.00169861
TCL: Minimizing for 4800 steps
ETITLE: TS BOND ANGLE DIHED IMPRP ELECT VDW BOUNDARY MISC KINETIC TOTAL TEMP POTENTIAL TOTAL3 TEMPAVG PRESSURE GPRESSURE VOLUME PRESSAVG GPRESSAVG
ENERGY: 0 4494.4117 2309.3998 2252.2081 0.0016 -5805.0025 4228.0890 0.0000 0.0000 0.0000 7479.1077 0.0000 7479.1077 7479.1077 0.0000 1.5773 1.8527 1000000000.0000 1.5773 1.8527
ENERGY: 960 802.9294 838.3184 2181.9749 2.9650 -6673.3696 159.7187 0.0000 0.0000 0.0000 -2687.4631 0.0000 -2687.4631 -2687.4631 0.0000 -0.0031 -0.0020 1000000000.0000 -0.0031 -0.0020
ENERGY: 1920 793.5880 821.1499 2165.4980 3.0150 -6716.7452 163.8154 0.0000 0.0000 0.0000 -2769.6789 0.0000 -2769.6789 -2769.6789 0.0000 -0.0034 -0.0031 1000000000.0000 -0.0034 -0.0031
ENERGY: 2880 786.2931 796.5099 2149.2175 3.2374 -6755.0846 170.0972 0.0000 0.0000 0.0000 -2849.7295 0.0000 -2849.7295 -2849.7295 0.0000 -0.0111 -0.0114 1000000000.0000 -0.0111 -0.0114
ENERGY: 3840 779.6384 789.0481 2146.2289 3.9181 -6779.7368 166.7177 0.0000 0.0000 0.0000 -2894.1856 0.0000 -2894.1856 -2894.1856 0.0000 -0.0112 -0.0108 1000000000.0000 -0.0112 -0.0108
ENERGY: 4800 775.4296 786.4124 2149.9277 4.1621 -6798.6842 164.8705 0.0000 0.0000 0.0000 -2917.8819 0.0000 -2917.8819 -2917.8819 0.0000 -0.0083 -0.0083 1000000000.0000 -0.0083 -0.0083
TCL: Running for 48000 steps
ETITLE: TS BOND ANGLE DIHED IMPRP ELECT VDW BOUNDARY MISC KINETIC TOTAL TEMP POTENTIAL TOTAL3 TEMPAVG PRESSURE GPRESSURE VOLUME PRESSAVG GPRESSAVG
ENERGY: 4800 775.4296 786.4124 2149.9277 4.1621 -6798.6842 164.8705 0.0000 0.0000 0.0000 -2917.8819 0.0000 -2917.8819 -2917.8849 0.0000 -0.0039 -0.0039 1000000000.0000 -0.0039 -0.0039
ENERGY: 14400 1035.7202 1302.1463 2208.0617 26.8655 -6875.8437 271.9794 0.0000 0.0000 1176.6568 -854.4138 227.8263 -2031.0705 -841.6103 197.2190 0.0264 0.0268 1000000000.0000 -0.0012 -0.0012
ENERGY: 24000 1125.7804 1484.7484 2228.9451 36.3093 -6893.7849 261.0296 0.0000 0.0000 1480.1469 -276.8251 286.5886 -1756.9721 -259.0627 274.6066 -0.0482 -0.0485 1000000000.0000 -0.0002 -0.0002
ENERGY: 33600 1169.1521 1542.6366 2237.1550 39.0835 -6887.9595 268.0534 0.0000 0.0000 1504.5817 -127.2972 291.3197 -1631.8788 -109.5013 296.4274 -0.0127 -0.0127 1000000000.0000 0.0008 0.0008
ENERGY: 43200 1127.5759 1563.9986 2223.8850 32.9595 -6875.6752 258.0534 0.0000 0.0000 1552.1144 -117.0885 300.5231 -1669.2029 -99.2035 292.9977 -0.0145 -0.0148 1000000000.0000 -0.0000 -0.0000
ENERGY: 52800 1103.2182 1491.4298 2266.8856 43.3866 -6912.6996 310.9698 0.0000 0.0000 1531.3468 -165.4630 296.5020 -1696.8097 -146.4153 293.5342 0.0316 0.0315 1000000000.0000 0.0007 0.0007
