Info: SIMULATION PARAMETERS:
Info: TIMESTEP               2
Info: NUMBER OF STEPS        0
Info: STEPS PER CYCLE        12
Info: PERIODIC CELL BASIS 1  1000 0 0
Info: PERIODIC CELL BASIS 2  0 1000 0
Info: PERIODIC CELL BASIS 3  0 0 1000
Info: PERIODIC CELL CENTER   0 0 0
Info: FIRST LDB TIMESTEP     60
Info: LAST LDB TIMESTEP     -1
Info: HOM BACKGROUND SCALING 1
Info: MIN ATOMS PER PATCH    40
Info: INITIAL TEMPERATURE    300
Info: CENTER OF MASS MOVING INITIALLY? NO
Info: DIELECTRIC             1
Info: EXCLUDE                SCALED ONE-FOUR
Info: 1-4 ELECTROSTATICS SCALED BY 1
Info: MODIFIED 1-4 VDW PARAMETERS WILL BE USED
Info: DCD FILENAME           output/test_object-1.dcd
Info: DCD FREQUENCY          4800
Info: DCD FIRST STEP         4800
Info: DCD FILE WILL CONTAIN UNIT CELL DATA
Info: XST FILENAME           output/test_object-1.xst
Info: XST FREQUENCY          4800
Info: NO VELOCITY DCD OUTPUT
Info: NO FORCE DCD OUTPUT
Info: OUTPUT FILENAME        output/test_object-1
Info: BINARY OUTPUT FILES WILL BE USED
Info: RESTART FILENAME       output/test_object-1.restart
Info: RESTART FREQUENCY      48000
Info: BINARY RESTART FILES WILL BE USED
Info: SWITCHING ACTIVE
Info: SWITCHING ON           8
Info: SWITCHING OFF          10
Info: PAIRLIST DISTANCE      12
Info: PAIRLIST SHRINK RATE   0.01
Info: PAIRLIST GROW RATE     0.01
Info: PAIRLIST TRIGGER       0.3
Info: PAIRLISTS PER CYCLE    2
Info: PAIRLISTS ENABLED
Info: MARGIN                 30
Info: HYDROGEN GROUP CUTOFF  2.5
Info: PATCH DIMENSION        44.5
Info: ENERGY OUTPUT STEPS    4800
Info: CROSSTERM ENERGY INCLUDED IN DIHEDRAL
Info: TIMING OUTPUT STEPS    48000
Info: LANGEVIN DYNAMICS ACTIVE
Info: LANGEVIN TEMPERATURE   300
Info: LANGEVIN USING BBK INTEGRATOR
Info: LANGEVIN DAMPING COEFFICIENT IS 0.1 INVERSE PS
Info: LANGEVIN DYNAMICS NOT APPLIED TO HYDROGENS
Info: USING VERLET I (r-RESPA) MTS SCHEME.
Info: C1 SPLITTING OF LONG RANGE ELECTROSTATICS
Info: PLACING ATOMS IN PATCHES BY HYDROGEN GROUPS
Info: RIGID BONDS TO HYDROGEN : ALL
Info:         ERROR TOLERANCE : 1e-08
Info:          MAX ITERATIONS : 100
Info: RIGID WATER USING SETTLE ALGORITHM
Info: RANDOM NUMBER SEED     1490285557
Info: USE HYDROGEN BONDS?    NO
Info: COORDINATE PDB         test_object.pdb
Info: STRUCTURE FILE         test_object.psf
Info: PARAMETER file: CHARMM format!
Info: PARAMETERS             charmm36.nbfix/par_all36_na.prm
Info: PARAMETERS             charmm36.nbfix/par_water_ions_na.prm
Info: USING ARITHMETIC MEAN TO COMBINE L-J SIGMA PARAMETERS
Info: SUMMARY OF PARAMETERS:
Info: 94 BONDS
Info: 230 ANGLES
Info: 503 DIHEDRAL
Info: 15 IMPROPER
Info: 0 CROSSTERM
Info: 58 VDW
Info: 8 VDW_PAIRS
Info: 0 NBTHOLE_PAIRS
Info: READING EXTRA BONDS FILE test_object.exb
Info: READ 17380 EXTRA BONDS
Info: STRUCTURE SUMMARY:
Info: 6487 ATOMS
Info: 24373 BONDS
Info: 12717 ANGLES
Info: 18466 DIHEDRALS
Info: 547 IMPROPERS
Info: 0 CROSSTERMS
Info: 0 EXCLUSIONS
Info: 2317 RIGID BONDS
Info: 17144 DEGREES OF FREEDOM
Info: 4170 HYDROGEN GROUPS
Info: 4 ATOMS IN LARGEST HYDROGEN GROUP
Info: 4170 MIGRATION GROUPS
Info: 4 ATOMS IN LARGEST MIGRATION GROUP
Info: TOTAL MASS = 62562.9 amu
Info: TOTAL CHARGE = -200 e
Info: MASS DENSITY = 0.000103891 g/cm^3
Info: ATOM DENSITY = 6.487e-06 atoms/A^3
Info: ADDED 36034 IMPLICIT EXCLUSIONS
Info: NONBONDED TABLE R-SQUARED SPACING: 0.0625
Info: NONBONDED TABLE SIZE: 705 POINTS
Info: REMOVING COM VELOCITY -0.0317658 -0.0176142 0.0215382
TCL: Minimizing for 4800 steps
ETITLE: TS BOND ANGLE DIHED IMPRP ELECT VDW BOUNDARY MISC KINETIC TOTAL TEMP POTENTIAL TOTAL3 TEMPAVG PRESSURE GPRESSURE VOLUME PRESSAVG GPRESSAVG
ENERGY: 0 61946.2406 11283.7370 7020.1017 0.0029 -18660.8565 68420.0645 0.0000 0.0000 0.0000 130009.2900 0.0000 130009.2900 130009.2900 0.0000 16.5947 17.4031 1000000000.0000 16.5947 17.4031
ENERGY: 960 5218.7871 3102.4691 6940.3279 52.6415 -20623.7773 -235.1875 0.0000 0.0000 0.0000 -5544.7392 0.0000 -5544.7392 -5544.7392 0.0000 0.0108 0.0069 1000000000.0000 0.0108 0.0069
ENERGY: 1920 5178.3938 3082.5436 6910.9306 55.7735 -20746.2288 -230.9098 0.0000 0.0000 0.0000 -5749.4970 0.0000 -5749.4970 -5749.4970 0.0000 0.0277 0.0232 1000000000.0000 0.0277 0.0232
ENERGY: 2880 5167.2745 3070.6855 6894.5744 57.2610 -20790.5930 -224.2679 0.0000 0.0000 0.0000 -5825.0654 0.0000 -5825.0654 -5825.0654 0.0000 0.0313 0.0259 1000000000.0000 0.0313 0.0259
ENERGY: 3840 5167.6535 3069.4205 6884.1580 57.5653 -20824.9225 -220.7995 0.0000 0.0000 0.0000 -5866.9246 0.0000 -5866.9246 -5866.9246 0.0000 0.0255 0.0207 1000000000.0000 0.0255 0.0207
ENERGY: 4800 5162.9574 3061.9953 6873.4735 57.2560 -20848.0075 -216.5932 0.0000 0.0000 0.0000 -5908.9185 0.0000 -5908.9185 -5908.9185 0.0000 0.0306 0.0252 1000000000.0000 0.0306 0.0252
TCL: Running for 48000 steps
ETITLE: TS BOND ANGLE DIHED IMPRP ELECT VDW BOUNDARY MISC KINETIC TOTAL TEMP POTENTIAL TOTAL3 TEMPAVG PRESSURE GPRESSURE VOLUME PRESSAVG GPRESSAVG
ENERGY: 4800 5162.9574 3061.9953 6873.4735 57.2560 -20848.0075 -216.5932 0.0000 0.0000 0.0000 -5908.9185 0.0000 -5908.9185 -5908.9262 0.0000 -0.0120 -0.0120 1000000000.0000 -0.0120 -0.0120
ENERGY: 14400 6324.7688 4791.9421 7000.2914 120.6768 -20954.7496 133.0314 0.0000 0.0000 3829.1660 1245.1270 224.7928 -2584.0390 1288.0651 193.3896 0.0249 0.0251 1000000000.0000 0.0065 0.0065
ENERGY: 24000 6684.9289 5206.2758 7141.2442 139.1306 -20814.3972 97.7954 0.0000 0.0000 4787.0530 3242.0306 281.0260 -1545.0223 3298.7941 272.0128 -0.0007 -0.0003 1000000000.0000 -0.0039 -0.0039
ENERGY: 33600 6678.9589 5295.2023 7177.5231 131.4583 -20802.3678 117.3410 0.0000 0.0000 5084.8333 3682.9490 298.5073 -1401.8843 3744.6526 293.7250 0.0467 0.0459 1000000000.0000 0.0011 0.0011
ENERGY: 43200 6735.1725 5401.7325 7158.9789 137.8137 -20850.6440 179.7590 0.0000 0.0000 5096.4021 3859.2147 299.1864 -1237.1874 3917.0372 300.5017 0.0261 0.0255 1000000000.0000 0.0007 0.0007
ENERGY: 52800 6752.6050 5355.5688 7153.8421 131.0194 -20764.6993 123.7227 0.0000 0.0000 5034.7479 3786.8066 295.5670 -1247.9413 3843.7458 300.9524 0.0142 0.0139 1000000000.0000 -0.0001 -0.0001
